34Bus/Test runs/Combination/ieee34-1_Curr_Elem.Txt

CIRCUIT ELEMENT CURRENTS

(Currents into element from indicated bus)

Power Delivery Elements

  Bus     Phase    Magnitude, A     Angle      (Real)   +j  (Imag)

ELEMENT = "Vsource.SOURCE"
SOURCEBUS     1           15.017 /_ -159.9 =    -14.103 +j   -5.1587
SOURCEBUS     2             13.3 /_   86.7 =     0.7668 +j    13.277
SOURCEBUS     3           15.613 /_  -31.3 =     13.337 +j   -8.1187
------------
SOURCEBUS     0           15.017 /_   20.1 =     14.103 +j    5.1587
SOURCEBUS     0             13.3 /_  -93.3 =    -0.7668 +j   -13.277
SOURCEBUS     0           15.613 /_  148.7 =    -13.337 +j    8.1187

ELEMENT = "Transformer.SUBXF"
SOURCEBUS     1           15.017 /_   20.1 =     14.103 +j    5.1587
SOURCEBUS     2             13.3 /_  -93.3 =    -0.7668 +j   -13.277
SOURCEBUS     3           15.613 /_  148.7 =    -13.337 +j    8.1187
SOURCEBUS     0                0 /_    0.0 =          0 +j         0
------------
800           1           46.042 /_  169.9 =    -45.323 +j     8.102
800           2           39.753 /_   55.8 =     22.367 +j    32.863
800           3           36.081 /_  -58.8 =     18.688 +j   -30.864
800           0           10.965 /_  -67.1 =     4.2683 +j     -10.1

ELEMENT = "Line.L1"
800           1           46.042 /_  -10.1 =     45.323 +j    -8.102
800           2           39.753 /_ -124.2 =    -22.367 +j   -32.863
800           3           36.081 /_  121.2 =    -18.688 +j    30.864
------------
802           1           46.054 /_  169.8 =    -45.327 +j    8.1506
802           2            39.75 /_   55.7 =     22.404 +j    32.835
802           3           36.083 /_  -58.9 =     18.653 +j   -30.888

ELEMENT = "Line.L2"
802           1           46.054 /_  -10.2 =     45.327 +j   -8.1506
802           2           38.723 /_ -123.7 =    -21.475 +j   -32.223
802           3           35.267 /_  121.9 =    -18.641 +j    29.937
------------
806           1           46.062 /_  169.8 =    -45.329 +j    8.1832
806           2           38.721 /_   56.3 =     21.499 +j    32.205
806           3           35.267 /_  -58.1 =     18.617 +j   -29.953

ELEMENT = "Line.L3"
806           1           46.062 /_  -10.2 =     45.329 +j   -8.1832
806           2           37.699 /_ -123.1 =    -20.569 +j   -31.593
806           3           34.457 /_  122.7 =    -18.606 +j    29.002
------------
808           1           46.209 /_  169.0 =    -45.367 +j    8.7821
808           2           37.657 /_   56.1 =     21.018 +j    31.246
808           3           34.462 /_  -58.2 =     18.169 +j   -29.284

ELEMENT = "Line.L4"
808           2          0.59781 /_ -142.4 =   -0.47337 +j   -0.3651
------------
810           2          0.62631 /_   31.8 =    0.53253 +j   0.32966

ELEMENT = "Line.L5"
808           1           46.209 /_  -11.0 =     45.367 +j   -8.7821
808           2           36.522 /_ -123.2 =    -20.012 +j   -30.551
808           3           34.462 /_  121.8 =    -18.169 +j    29.284
------------
812           1           46.377 /_  168.2 =    -45.402 +j    9.4612
812           2            36.47 /_   55.8 =     20.521 +j    30.148
812           3           34.469 /_  -59.2 =     17.665 +j   -29.599

ELEMENT = "Line.L6"
812           1           46.377 /_  -11.8 =     45.402 +j   -9.4612
812           2            36.47 /_ -124.2 =    -20.521 +j   -30.148
812           3           34.469 /_  120.8 =    -17.665 +j    29.599
------------
814           1           46.508 /_  167.6 =    -45.423 +j    9.9858
814           2           36.431 /_   55.0 =     20.914 +j     29.83
814           3           34.476 /_  -59.9 =     17.268 +j   -29.839

ELEMENT = "Line.L7"
814R          1           43.516 /_  -12.4 =     42.501 +j   -9.3421
814R          2           35.761 /_ -125.0 =    -20.528 +j   -29.281
814R          3           33.841 /_  120.1 =    -16.952 +j    29.289
------------
850           1           43.516 /_  167.6 =    -42.501 +j    9.3423
850           2           35.761 /_   55.0 =     20.529 +j    29.281
850           3           33.841 /_  -59.9 =     16.952 +j   -29.289

ELEMENT = "Line.L8"
816           1           12.954 /_  -26.7 =     11.578 +j   -5.8108
------------
818           1           12.962 /_  153.3 =    -11.577 +j    5.8309

ELEMENT = "Line.L9"
816           1           31.125 /_   -6.5 =     30.924 +j    -3.537
816           2           35.654 /_ -125.1 =    -20.488 +j   -29.179
816           3           33.778 /_  120.2 =    -16.992 +j    29.193
------------
824           1           31.151 /_  173.1 =    -30.928 +j    3.7164
824           2           35.641 /_   54.7 =     20.618 +j    29.071
824           3           33.781 /_  -60.1 =     16.859 +j   -29.273

ELEMENT = "Line.L10"
818           1           11.611 /_  -26.5 =     10.392 +j   -5.1789
------------
820           1           11.852 /_  151.0 =     -10.37 +j    5.7385

ELEMENT = "Line.L11"
820           1           5.2384 /_  -28.2 =     4.6166 +j   -2.4755
------------
822           1           5.3091 /_  150.3 =    -4.6102 +j    2.6331

ELEMENT = "Line.L12"
824           2           1.5399 /_ -148.3 =    -1.3096 +j  -0.81021
------------
826           2           1.5554 /_   30.6 =     1.3393 +j   0.79103

ELEMENT = "Line.L13"
824           1           31.151 /_   -6.9 =     30.928 +j   -3.7164
824           2           32.719 /_ -123.2 =    -17.925 +j   -27.372
824           3           33.583 /_  120.2 =      -16.9 +j    29.021
------------
828           1           31.153 /_  173.1 =    -30.929 +j    3.7311
828           2           32.717 /_   56.8 =     17.935 +j    27.363
828           3           33.583 /_  -59.8 =      16.89 +j   -29.027

ELEMENT = "Line.L14"
828           1           30.906 /_   -6.7 =     30.694 +j   -3.6185
828           2           32.717 /_ -123.2 =    -17.935 +j   -27.363
828           3           33.449 /_  120.3 =    -16.886 +j    28.873
------------
830           1           30.958 /_  172.6 =    -30.702 +j    3.9736
830           2           32.679 /_   56.2 =     18.191 +j    27.148
830           3           33.452 /_  -60.2 =     16.623 +j    -29.03

ELEMENT = "Line.L15"
830           1           29.885 /_   -6.2 =     29.709 +j   -3.2461
830           2           32.191 /_ -123.4 =    -17.722 +j   -26.874
830           3           32.542 /_  120.1 =    -16.338 +j    28.144
------------
854           1           29.887 /_  173.7 =    -29.709 +j     3.255
854           2            32.19 /_   56.6 =     17.728 +j    26.868
854           3           32.542 /_  -59.9 =     16.331 +j   -28.148

ELEMENT = "Line.L16"
832           1           20.604 /_    2.0 =     20.592 +j   0.71776
832           2           22.818 /_ -115.2 =    -9.7107 +j   -20.649
832           3           23.795 /_  129.4 =    -15.102 +j    18.388
------------
858           1           20.602 /_ -178.2 =    -20.593 +j  -0.62953
858           2           22.796 /_   64.6 =     9.7732 +j    20.595
858           3           23.782 /_  -50.8 =     15.036 +j   -18.426

ELEMENT = "Line.L17"
834           1           8.5477 /_  -40.2 =     6.5284 +j   -5.5174
834           2           8.4151 /_ -155.9 =    -7.6845 +j   -3.4298
834           3           7.9412 /_   94.6 =   -0.63802 +j    7.9156
------------
860           1           8.5713 /_  139.6 =    -6.5287 +j    5.5536
860           2           8.4294 /_   23.8 =     7.7101 +j    3.4073
860           3           7.9543 /_  -85.6 =    0.61089 +j   -7.9308

ELEMENT = "Line.L18"
834           1            14.78 /_   36.7 =     11.848 +j    8.8356
834           2           16.168 /_  -93.7 =    -1.0554 +j   -16.133
834           3           14.992 /_  153.0 =    -13.361 +j    6.8002
------------
842           1           14.777 /_ -143.3 =    -11.848 +j   -8.8306
842           2           16.165 /_   86.2 =     1.0589 +j     16.13
842           3            14.99 /_  -27.0 =     13.358 +j   -6.8023

ELEMENT = "Line.L19"
836           1           1.1547 /_  -27.4 =     1.0251 +j  -0.53151
836           2           1.5808 /_ -154.5 =    -1.4266 +j  -0.68093
836           3           1.2855 /_   71.5 =    0.40739 +j    1.2192
------------
840           1            1.162 /_  151.9 =    -1.0252 +j   0.54693
840           2           1.5866 /_   25.0 =     1.4375 +j   0.67137
840           3           1.2953 /_ -108.9 =   -0.41894 +j   -1.2257

ELEMENT = "Line.L20"
836           1        0.0050204 /_   90.4 =  -3.6577E-005 +j 0.0050203
836           2           2.0782 /_ -149.3 =    -1.7875 +j   -1.0601
836           3        0.0043134 /_ -150.7 =  -0.0037604 +j -0.002113
------------
862           1      2.1213E-011 /_  121.0 =  -1.0914E-011 +j 1.819E-011
862           2           2.0797 /_   30.5 =     1.7911 +j     1.057
862           3         1.5E-011 /_  -76.0 =  3.638E-012 +j -1.4552E-011

ELEMENT = "Line.L21"
842           1           14.658 /_   38.0 =     11.558 +j    9.0148
842           2           16.165 /_  -93.8 =    -1.0589 +j    -16.13
842           3            14.99 /_  153.0 =    -13.358 +j    6.8023
------------
844           1           14.643 /_ -142.1 =    -11.558 +j   -8.9906
844           2           16.151 /_   86.2 =      1.076 +j    16.115
844           3           14.978 /_  -27.1 =     13.339 +j   -6.8125

ELEMENT = "Line.L22"
844           1           10.222 /_   81.4 =     1.5296 +j    10.107
844           2           9.5815 /_  -54.9 =      5.516 +j   -7.8345
844           3           9.8469 /_ -163.4 =    -9.4353 +j   -2.8172
------------
846           1           10.157 /_  -98.7 =      -1.53 +j   -10.042
846           2           9.5219 /_  125.1 =    -5.4699 +j     7.794
846           3           9.7922 /_   16.6 =     9.3864 +j    2.7898

ELEMENT = "Line.L23"
846           1           10.157 /_   81.3 =       1.53 +j    10.042
846           2           9.8435 /_  -44.5 =     7.0199 +j   -6.9004
846           3           10.073 /_ -159.3 =    -9.4235 +j   -3.5579
------------
848           1           10.148 /_  -98.7 =      -1.53 +j   -10.032
848           2           9.8346 /_  135.5 =    -7.0132 +j    6.8945
848           3           10.065 /_   20.7 =     9.4164 +j    3.5539

ELEMENT = "Line.L24"
850           1           43.516 /_  -12.4 =     42.501 +j   -9.3423
850           2           35.761 /_ -125.0 =    -20.529 +j   -29.281
850           3           33.841 /_  120.1 =    -16.952 +j    29.289
------------
816           1           43.517 /_  167.6 =    -42.501 +j    9.3478
816           2            35.76 /_   55.0 =     20.532 +j    29.278
816           3           33.841 /_  -59.9 =     16.948 +j   -29.292

ELEMENT = "Line.L25"
852R          1            27.88 /_   -7.4 =     27.645 +j   -3.6094
852R          2           29.797 /_ -124.7 =    -16.964 +j   -24.497
852R          3           30.452 /_  119.2 =    -14.843 +j    26.589
------------
832           1            27.88 /_  172.6 =    -27.645 +j    3.6096
832           2           29.797 /_   55.3 =     16.964 +j    24.496
832           3           30.452 /_  -60.8 =     14.843 +j   -26.589

ELEMENT = "Transformer.XFM1"
832           1            8.183 /_  -31.6 =     6.9706 +j   -4.2863
832           2           8.1833 /_ -152.1 =    -7.2295 +j   -3.8342
832           3           8.1244 /_   88.2 =    0.25861 +j    8.1203
832           0        0.0003464 /_   39.9 =  0.00026586 +j 0.00022207
------------
888           1            48.98 /_  148.4 =    -41.723 +j    25.656
888           2           48.982 /_   27.9 =     43.273 +j     22.95
888           3           48.629 /_  -91.8 =    -1.5478 +j   -48.605
888           0        0.0020734 /_ -140.1 =  -0.0015913 +j -0.0013292

ELEMENT = "Line.L26"
854           2          0.24241 /_  -68.4 =   0.089162 +j  -0.22542
------------
856           2          0.15574 /_   30.1 =    0.13476 +j  0.078067

ELEMENT = "Line.L27"
854           1           29.887 /_   -6.3 =     29.709 +j    -3.255
854           2           31.912 /_ -123.6 =    -17.683 +j   -26.565
854           3           32.542 /_  120.1 =    -16.331 +j    28.148
------------
852           1           29.971 /_  172.6 =    -29.718 +j    3.8816
852           2           31.845 /_   55.3 =     18.131 +j     26.18
852           3           32.545 /_  -60.8 =     15.863 +j   -28.418

ELEMENT = "Line.L28"
858           1         0.046807 /_   -8.0 =   0.046353 +j -0.0065046
------------
864           1         0.052152 /_  150.2 =  -0.045251 +j  0.025927

ELEMENT = "Line.L29"
858           1           20.245 /_    2.7 =     20.223 +j   0.95512
858           2           22.421 /_ -115.1 =     -9.514 +j   -20.302
858           3           23.337 /_  130.2 =    -15.076 +j    17.814
------------
834           1           20.241 /_ -177.6 =    -20.223 +j  -0.85039
834           2           22.394 /_   64.6 =      9.588 +j    20.237
834           3            23.32 /_  -50.0 =     14.998 +j   -17.858

ELEMENT = "Line.L30"
860           1           2.8329 /_  -27.2 =       2.52 +j   -1.2942
860           2           5.1873 /_ -152.8 =    -4.6131 +j   -2.3722
860           3           2.6318 /_   83.3 =    0.30528 +j     2.614
------------
836           1           2.8555 /_  152.0 =    -2.5204 +j    1.3423
836           2           5.2041 /_   26.8 =     4.6471 +j    2.3424
836           3           2.6563 /_  -97.4 =   -0.34128 +j   -2.6343

ELEMENT = "Line.L31"
862           2           1.0276 /_ -147.9 =   -0.87096 +j  -0.54537
------------
838           2           1.0529 /_   29.1 =    0.92025 +j   0.51167

ELEMENT = "Line.L32"
888           1            48.98 /_  -31.6 =     41.723 +j   -25.656
888           2           48.982 /_ -152.1 =    -43.273 +j    -22.95
888           3           48.629 /_   88.2 =     1.5478 +j    48.605
------------
890           1           48.997 /_  148.4 =    -41.723 +j    25.688
890           2           48.992 /_   27.9 =     43.294 +j     22.93
890           3           48.643 /_  -91.9 =    -1.5715 +j   -48.617

ELEMENT = "Capacitor.C844"
844           1           7.2413 /_   86.7 =    0.42258 +j    7.2289
844           2           7.1971 /_  -34.4 =     5.9393 +j   -4.0648
844           3           7.1788 /_ -153.9 =     -6.447 +j   -3.1577
------------
844           0           7.2413 /_  -93.3 =   -0.42258 +j   -7.2289
844           0           7.1971 /_  145.6 =    -5.9393 +j    4.0648
844           0           7.1788 /_   26.1 =      6.447 +j    3.1577

ELEMENT = "Capacitor.C848"
848           1           10.866 /_   86.6 =    0.64386 +j    10.847
848           2           10.796 /_  -34.4 =     8.9039 +j   -6.1059
848           3           10.772 /_ -154.0 =    -9.6788 +j   -4.7285
------------
848           0           10.866 /_  -93.4 =   -0.64386 +j   -10.847
848           0           10.796 /_  145.6 =    -8.9039 +j    6.1059
848           0           10.772 /_   26.0 =     9.6788 +j    4.7285

ELEMENT = "Transformer.REG1A"
814           1           46.508 /_  -12.4 =     45.423 +j   -9.9858
814           0           46.507 /_  167.6 =    -45.423 +j    9.9852
------------
814R          1           43.516 /_  167.6 =    -42.501 +j    9.3421
814R          0           43.516 /_  -12.4 =     42.501 +j   -9.3429

ELEMENT = "Transformer.REG1B"
814           2           36.431 /_ -125.0 =    -20.914 +j    -29.83
814           0           36.431 /_   55.0 =     20.914 +j     29.83
------------
814R          2           35.761 /_   55.0 =     20.528 +j    29.281
814R          0           35.761 /_ -125.0 =    -20.529 +j   -29.281

ELEMENT = "Transformer.REG1C"
814           3           34.476 /_  120.1 =    -17.268 +j    29.839
814           0           34.476 /_  -59.9 =     17.269 +j   -29.839
------------
814R          3           33.841 /_  -59.9 =     16.952 +j   -29.289
814R          0           33.841 /_  120.1 =    -16.951 +j     29.29

ELEMENT = "Transformer.REG2A"
852           1           29.971 /_   -7.4 =     29.718 +j   -3.8816
852           0           29.971 /_  172.6 =    -29.718 +j    3.8809
------------
852R          1            27.88 /_  172.6 =    -27.645 +j    3.6094
852R          0            27.88 /_   -7.4 =     27.645 +j   -3.6102

ELEMENT = "Transformer.REG2B"
852           2           31.845 /_ -124.7 =    -18.131 +j    -26.18
852           0           31.845 /_   55.3 =      18.13 +j     26.18
------------
852R          2           29.797 /_   55.3 =     16.964 +j    24.497
852R          0           29.797 /_ -124.7 =    -16.964 +j   -24.496

ELEMENT = "Transformer.REG2C"
852           3           32.545 /_  119.2 =    -15.863 +j    28.418
852           0           32.545 /_  -60.8 =     15.863 +j   -28.417
------------
852R          3           30.452 /_  -60.8 =     14.843 +j   -26.589
852R          0           30.452 /_  119.2 =    -14.843 +j    26.589

= = = = = = = = = = = = = = = = = = =  = = = = = = = = = = =  = =

Power Conversion Elements

  Bus     Phase    Magnitude, A     Angle      (Real)   +j  (Imag)

ELEMENT = "Load.S860"
860           1           1.7688 /_  -44.2 =     1.2675 +j   -1.2336
860           2           1.7703 /_ -164.9 =    -1.7095 +j  -0.46024
860           3           1.7711 /_   75.7 =    0.43747 +j    1.7162
860           0         0.022732 /_  -78.7 =  0.0044455 +j -0.022293

ELEMENT = "Load.S840"
840           1          0.82529 /_  -41.2 =    0.62113 +j  -0.54342
840           2          0.82023 /_ -162.2 =   -0.78111 +j  -0.25028
840           3          0.81827 /_   78.3 =    0.16662 +j   0.80113
840           0        0.0099578 /_ -131.8 =  -0.0066362 +j -0.0074242

ELEMENT = "Load.S844"
844           1           12.384 /_  -41.2 =     9.3153 +j   -8.1608
844           2           12.309 /_ -162.3 =    -11.724 +j     -3.75
844           3           12.278 /_   78.2 =     2.5064 +j    12.019
844           0           0.1459 /_ -132.2 =  -0.097914 +j  -0.10817

ELEMENT = "Load.S848"
848           1           1.2036 /_  -42.6 =    0.88615 +j  -0.81455
848           2           1.2037 /_ -162.6 =    -1.1486 +j  -0.36008
848           3           1.2036 /_   77.4 =    0.26242 +j    1.1746

ELEMENT = "Load.S830A"
830           1          0.31524 /_    0.4 =    0.31523 +j 0.0023185
830           2          0.31524 /_ -179.6 =   -0.31523 +j -0.0023185

ELEMENT = "Load.S830B"
830           2          0.31254 /_ -119.6 =   -0.15453 +j  -0.27166
830           3          0.31254 /_   60.4 =    0.15453 +j   0.27166

ELEMENT = "Load.S830C"
830           3          0.75534 /_  125.6 =   -0.43955 +j   0.61428
830           1          0.75534 /_  -54.4 =    0.43955 +j  -0.61428

ELEMENT = "Load.S890"
890           1           48.997 /_  -31.6 =     41.723 +j   -25.688
890           2           48.992 /_ -152.1 =    -43.294 +j    -22.93
890           3           48.643 /_   88.1 =     1.5715 +j    48.617

ELEMENT = "Load.D858_864SB"
858           1         0.052152 /_  -29.8 =   0.045251 +j -0.025926
858           0         0.052152 /_  150.2 =  -0.045251 +j  0.025926

ELEMENT = "Load.D858_864RB"
864           1         0.052152 /_  -29.8 =   0.045251 +j -0.025927
864           0         0.052152 /_  150.2 =  -0.045251 +j  0.025927

ELEMENT = "Load.D858_834SA"
858           1         0.060098 /_   -0.4 =   0.060096 +j -0.0004278
858           2         0.060098 /_  179.6 =  -0.060096 +j 0.0004278

ELEMENT = "Load.D858_834RA"
834           1         0.060239 /_   -0.5 =   0.060236 +j -0.00052515
834           2         0.060239 /_  179.5 =  -0.060236 +j 0.00052515

ELEMENT = "Load.D842_844SA"
842           1          0.34391 /_  -32.4 =    0.29045 +j  -0.18416
842           0          0.34391 /_  147.6 =   -0.29045 +j   0.18416

ELEMENT = "Load.D842_844RA"
844           1          0.34398 /_  -32.4 =    0.29043 +j  -0.18431
844           0          0.34398 /_  147.6 =   -0.29043 +j   0.18431

ELEMENT = "Load.D844_846SB"
844           2          0.93217 /_ -150.0 =   -0.80752 +j  -0.46568
844           0          0.93217 /_   30.0 =    0.80752 +j   0.46568

ELEMENT = "Load.D844_846RB"
846           2          0.93214 /_ -150.1 =   -0.80787 +j  -0.46501
846           0          0.93214 /_   29.9 =    0.80787 +j   0.46501

ELEMENT = "Load.D844_846SC"
844           3          0.76924 /_   87.3 =   0.036443 +j   0.76838
844           0          0.76924 /_  -92.7 =  -0.036443 +j  -0.76838

ELEMENT = "Load.D844_846RC"
846           3            0.769 /_   87.2 =   0.037111 +j    0.7681
846           0            0.769 /_  -92.8 =  -0.037111 +j   -0.7681

ELEMENT = "Load.D846_848SB"
846           2          0.85699 /_ -150.0 =   -0.74213 +j  -0.42857
846           0          0.85699 /_   30.0 =    0.74213 +j   0.42857

ELEMENT = "Load.D846_848RB"
848           2          0.85696 /_ -150.0 =   -0.74216 +j  -0.42847
848           0          0.85696 /_   30.0 =    0.74216 +j   0.42847

ELEMENT = "Load.D802_806SB"
802           2           1.1124 /_ -146.6 =   -0.92904 +j  -0.61185
802           0           1.1124 /_   33.4 =    0.92904 +j   0.61185

ELEMENT = "Load.D802_806RB"
806           2           1.1133 /_ -146.7 =   -0.93026 +j  -0.61164
806           0           1.1133 /_   33.3 =    0.93026 +j   0.61164

ELEMENT = "Load.D802_806SC"
802           3          0.95028 /_   90.7 =  -0.011624 +j   0.95021
802           0          0.95028 /_  -89.3 =   0.011624 +j  -0.95021

ELEMENT = "Load.D802_806RC"
806           3          0.95105 /_   90.7 =  -0.011097 +j   0.95099
806           0          0.95105 /_  -89.3 =   0.011097 +j  -0.95099

ELEMENT = "Load.D808_810SB"
808           2          0.62633 /_ -148.2 =   -0.53256 +j  -0.32964
808           0          0.62633 /_   31.8 =    0.53256 +j   0.32964

ELEMENT = "Load.D808_810RB"
810           2          0.62631 /_ -148.2 =   -0.53253 +j  -0.32966
810           0          0.62631 /_   31.8 =    0.53253 +j   0.32966

ELEMENT = "Load.D818_820SA"
818           1           1.3522 /_  -28.8 =     1.1847 +j  -0.65203
818           0           1.3522 /_  151.2 =    -1.1847 +j   0.65203

ELEMENT = "Load.D818_820RA"
820           1           1.3211 /_  -28.9 =     1.1567 +j  -0.63818
820           0           1.3211 /_  151.1 =    -1.1567 +j   0.63818

ELEMENT = "Load.D820_822SA"
820           1            5.293 /_  -29.7 =     4.5964 +j   -2.6248
820           0            5.293 /_  150.3 =    -4.5964 +j    2.6248

ELEMENT = "Load.D820_822RA"
822           1           5.3091 /_  -29.7 =     4.6102 +j   -2.6331
822           0           5.3091 /_  150.3 =    -4.6102 +j    2.6331

ELEMENT = "Load.D816_824SB"
816           2          0.10814 /_ -114.2 =  -0.044244 +j  -0.09867
816           3          0.10814 /_   65.8 =   0.044244 +j   0.09867

ELEMENT = "Load.D816_824RB"
824           2          0.10814 /_ -114.4 =  -0.044629 +j -0.098497
824           3          0.10814 /_   65.6 =   0.044629 +j  0.098497

ELEMENT = "Load.D828_830SA"
828           1          0.26088 /_  -25.6 =    0.23528 +j  -0.11269
828           0          0.26088 /_  154.4 =   -0.23528 +j   0.11269

ELEMENT = "Load.D828_830RA"
830           1          0.26487 /_  -25.9 =    0.23833 +j  -0.11555
830           0          0.26487 /_  154.1 =   -0.23833 +j   0.11555

ELEMENT = "Load.D854_856SB"
854           2          0.15572 /_ -149.9 =   -0.13474 +j -0.078076
854           0          0.15572 /_   30.1 =    0.13474 +j  0.078076

ELEMENT = "Load.D854_856RB"
856           2          0.15574 /_ -149.9 =   -0.13476 +j -0.078067
856           0          0.15574 /_   30.1 =    0.13476 +j  0.078067

ELEMENT = "Load.D832_858SA"
832           1         0.092364 /_  -26.4 =   0.082743 +j -0.041044
832           0         0.092364 /_  153.6 =  -0.082743 +j  0.041044

ELEMENT = "Load.D832_858RA"
858           1         0.092165 /_  -26.4 =   0.082522 +j -0.041043
858           0         0.092165 /_  153.6 =  -0.082522 +j  0.041043

ELEMENT = "Load.D832_858SB"
832           2         0.026959 /_ -150.7 =  -0.023514 +j -0.013185
832           0         0.026959 /_   29.3 =   0.023514 +j  0.013185

ELEMENT = "Load.D832_858RB"
858           2           0.0269 /_ -150.8 =  -0.023485 +j -0.013118
858           0           0.0269 /_   29.2 =   0.023485 +j  0.013118

ELEMENT = "Load.D832_858SC"
832           3         0.080636 /_   89.8 =  0.00027793 +j  0.080636
832           0         0.080636 /_  -90.2 =  -0.00027793 +j -0.080636

ELEMENT = "Load.D832_858RC"
858           3         0.080471 /_   89.7 =  0.00043087 +j  0.080469
858           0         0.080471 /_  -90.3 =  -0.00043087 +j -0.080469

ELEMENT = "Load.D824_826SB"
824           2           1.5554 /_ -149.4 =    -1.3392 +j  -0.79103
824           0           1.5554 /_   30.6 =     1.3392 +j   0.79103

ELEMENT = "Load.D824_826RB"
826           2           1.5554 /_ -149.4 =    -1.3393 +j  -0.79103
826           0           1.5554 /_   30.6 =     1.3393 +j   0.79103

ELEMENT = "Load.D824_828SC"
824           3          0.15383 /_   91.3 =  -0.0033871 +j    0.1538
824           0          0.15383 /_  -88.7 =  0.0033871 +j   -0.1538

ELEMENT = "Load.D824_828RC"
828           3          0.15393 /_   91.2 =  -0.0033343 +j   0.15389
828           0          0.15393 /_  -88.8 =  0.0033343 +j  -0.15389

ELEMENT = "Load.D834_860SA"
834           1          0.37485 /_   -0.5 =    0.37483 +j -0.0032679
834           2          0.37485 /_  179.5 =   -0.37483 +j 0.0032679

ELEMENT = "Load.D834_860RA"
860           1           0.3747 /_   -0.5 =    0.37469 +j -0.0032422
860           2           0.3747 /_  179.5 =   -0.37469 +j 0.0032422

ELEMENT = "Load.D834_860SB"
834           2          0.46298 /_ -120.7 =   -0.23654 +j  -0.39799
834           3          0.46298 /_   59.3 =    0.23654 +j   0.39799

ELEMENT = "Load.D834_860RB"
860           2          0.46281 /_ -120.7 =   -0.23646 +j  -0.39784
860           3          0.46281 /_   59.3 =    0.23646 +j   0.39784

ELEMENT = "Load.D834_860SC"
834           3           2.5532 /_  120.0 =     -1.276 +j    2.2114
834           1           2.5532 /_  -60.0 =      1.276 +j   -2.2114

ELEMENT = "Load.D834_860RC"
860           3            2.552 /_  120.0 =    -1.2755 +j    2.2104
860           1            2.552 /_  -60.0 =     1.2755 +j   -2.2104

ELEMENT = "Load.D860_836SA"
860           1          0.64566 /_   -0.5 =    0.64564 +j -0.0055868
860           2          0.64566 /_  179.5 =   -0.64564 +j 0.0055868

ELEMENT = "Load.D860_836RA"
836           1          0.64583 /_   -0.5 =     0.6458 +j -0.0056096
836           2          0.64583 /_  179.5 =    -0.6458 +j 0.0056096

ELEMENT = "Load.D860_836SB"
860           2          0.22719 /_ -125.1 =   -0.13071 +j  -0.18582
860           3          0.22719 /_   54.9 =    0.13071 +j   0.18582

ELEMENT = "Load.D860_836RB"
836           2          0.22725 /_ -125.1 =   -0.13074 +j  -0.18588
836           3          0.22725 /_   54.9 =    0.13074 +j   0.18588

ELEMENT = "Load.D860_836SC"
860           3           0.9213 /_  118.9 =   -0.44532 +j   0.80652
860           1           0.9213 /_  -61.1 =    0.44532 +j  -0.80652

ELEMENT = "Load.D860_836RC"
836           3          0.92147 /_  118.9 =   -0.44541 +j   0.80666
836           1          0.92147 /_  -61.1 =    0.44541 +j  -0.80666

ELEMENT = "Load.D836_840SA"
836           1          0.40411 /_   -0.5 =    0.40409 +j -0.0035101
836           2          0.40411 /_  179.5 =   -0.40409 +j 0.0035101

ELEMENT = "Load.D836_840RA"
840           1          0.40411 /_   -0.5 =    0.40409 +j -0.0035105
840           2          0.40411 /_  179.5 =   -0.40409 +j 0.0035105

ELEMENT = "Load.D836_840SB"
836           2          0.49391 /_ -120.7 =   -0.25232 +j   -0.4246
836           3          0.49391 /_   59.3 =    0.25232 +j    0.4246

ELEMENT = "Load.D836_840RB"
840           2          0.49391 /_ -120.7 =   -0.25232 +j   -0.4246
840           3          0.49391 /_   59.3 =    0.25232 +j    0.4246

ELEMENT = "Load.D858_834SB"
858           2          0.33029 /_ -122.1 =   -0.17559 +j  -0.27975
858           3          0.33029 /_   57.9 =    0.17559 +j   0.27975

ELEMENT = "Load.D858_834RB"
834           2          0.33106 /_ -122.2 =   -0.17657 +j  -0.28005
834           3          0.33106 /_   57.8 =    0.17657 +j   0.28005

ELEMENT = "Load.D858_834SC"
858           3          0.28599 /_  118.4 =   -0.13582 +j   0.25168
858           1          0.28599 /_  -61.6 =    0.13582 +j  -0.25168

ELEMENT = "Load.D858_834RC"
834           3          0.28677 /_  118.2 =   -0.13573 +j   0.25262
834           1          0.28677 /_  -61.8 =    0.13573 +j  -0.25262

ELEMENT = "Load.D862_838SB"
862           2           1.0528 /_ -150.9 =    -0.9201 +j  -0.51162
862           0           1.0528 /_   29.1 =     0.9201 +j   0.51162

ELEMENT = "Load.D862_838RB"
838           2           1.0529 /_ -150.9 =   -0.92025 +j  -0.51167
838           0           1.0529 /_   29.1 =    0.92025 +j   0.51167

